REMARK SMILES CCCc1nn(C)c2c(=O)[nH]c(-c3cc(S(=O)(=O)N4CCN(C)CC4)ccc3OCC)nc12
REMARK SMILES IDX 4 1 5 2 6 3 7 4 8 5 33 6 32 7 12 8 11 9 9 10 10 11 3 13 2 14
REMARK SMILES IDX 1 15 13 16 14 17 28 18 15 19 27 20 26 21 29 22 30 23 31 24
REMARK SMILES IDX 16 25 17 26 18 27 19 28 20 29 25 30 21 31 24 32 22 33 23 34
REMARK H PARENT 11 12
REMARK Flexibility Score: inf
ROOT
ATOM      1  C   UNL A   1       7.858   0.651   0.456  1.00  0.00     0.089 A 
ATOM      2  N   UNL A   1       7.887  -0.562   1.064  1.00  0.00    -0.175 NA
ATOM      3  N   UNL A   1       7.107  -0.502   2.142  1.00  0.00    -0.261 N 
ATOM      4  C   UNL A   1       6.890  -1.621   3.051  1.00  0.00     0.174 C 
ATOM      5  C   UNL A   1       6.581   0.737   2.225  1.00  0.00     0.152 A 
ATOM      6  C   UNL A   1       7.030   1.471   1.188  1.00  0.00     0.120 A 
ATOM      7  N   UNL A   1       6.673   2.758   0.998  1.00  0.00    -0.226 NA
ATOM      8  C   UNL A   1       5.826   3.367   1.890  1.00  0.00     0.144 A 
ATOM      9  N   UNL A   1       5.350   2.630   2.962  1.00  0.00    -0.305 N 
ATOM     10  C   UNL A   1       5.715   1.309   3.148  1.00  0.00     0.277 A 
ATOM     11  O   UNL A   1       5.286   0.672   4.094  1.00  0.00    -0.267 OA
ATOM     12  H   UNL A   1       4.694   3.017   3.664  1.00  0.00     0.171 HD
ENDROOT
BRANCH   1  13
ATOM     13  C   UNL A   1       8.607   0.993  -0.797  1.00  0.00     0.060 C 
BRANCH  13  14
ATOM     14  C   UNL A   1       9.606   2.131  -0.555  1.00  0.00     0.003 C 
ATOM     15  C   UNL A   1      10.380   2.463  -1.827  1.00  0.00     0.004 C 
ENDBRANCH  13  14
ENDBRANCH   1  13
BRANCH   8  16
ATOM     16  C   UNL A   1       5.469   4.816   1.635  1.00  0.00     0.061 A 
ATOM     17  C   UNL A   1       5.887   5.372   0.401  1.00  0.00     0.037 A 
ATOM     18  C   UNL A   1       4.756   5.663   2.538  1.00  0.00     0.130 A 
ATOM     19  C   UNL A   1       5.618   6.697   0.062  1.00  0.00     0.083 A 
ATOM     20  C   UNL A   1       4.494   7.002   2.171  1.00  0.00     0.048 A 
ATOM     21  C   UNL A   1       4.920   7.510   0.948  1.00  0.00     0.025 A 
BRANCH  18  22
ATOM     22  O   UNL A   1       4.348   5.194   3.744  1.00  0.00    -0.493 OA
BRANCH  22  23
ATOM     23  C   UNL A   1       3.659   5.893   4.716  1.00  0.00     0.226 C 
ATOM     24  C   UNL A   1       3.401   4.980   5.905  1.00  0.00     0.049 C 
ENDBRANCH  22  23
ENDBRANCH  18  22
BRANCH  19  25
ATOM     25  S   UNL A   1       6.161   7.352  -1.518  1.00  0.00     0.243 S 
ATOM     26  O   UNL A   1       4.944   7.624  -2.416  1.00  0.00    -0.207 OA
ATOM     27  O   UNL A   1       6.802   8.743  -1.411  1.00  0.00    -0.207 OA
BRANCH  25  28
ATOM     28  N   UNL A   1       7.247   6.315  -2.497  1.00  0.00    -0.195 NA
ATOM     29  C   UNL A   1       8.584   6.129  -1.902  1.00  0.00     0.118 C 
ATOM     30  C   UNL A   1       7.327   6.682  -3.923  1.00  0.00     0.118 C 
ATOM     31  C   UNL A   1       9.509   7.327  -2.165  1.00  0.00     0.101 C 
ATOM     32  C   UNL A   1       8.251   7.885  -4.153  1.00  0.00     0.101 C 
ATOM     33  N   UNL A   1       9.591   7.592  -3.613  1.00  0.00    -0.304 NA
ATOM     34  C   UNL A   1      10.506   8.712  -3.878  1.00  0.00     0.105 C 
ENDBRANCH  25  28
ENDBRANCH  19  25
ENDBRANCH   8  16
TORSDOF 7
